
Circuit: ********************************************************************************

Warning: Model issue on line 286 : .model bc848c npn(is=7.049f xti=3 eg=1.11 vaf=29.03 bf=4 ...
  unrecognized parameter (nk) - ignored
Doing analysis at TEMP = 27.000000 and TNOM = 27.000000

No. of Data Columns : 6  

No. of Data Rows : 100
.print line ignored since rawfile was produced.
CPU time since last call: 0.008 seconds.

Total CPU time: 0.008 seconds.

Total DRAM available = 7897.375000 MB.
DRAM currently available = 3821.792969 MB.
Total ngspice program size = 14.845703 MB.
Resident set size = 1.966797 MB.
Shared ngspice pages = 1.679688 MB.
Text (code) pages = 1.333008 MB.
Stack = 0 bytes.
Library pages = 333.000 kB.

