
Circuit: ********************************************************************************

Doing analysis at TEMP = 27.000000 and TNOM = 27.000000

No. of Data Columns : 4  

No. of Data Rows : 41
.print line ignored since rawfile was produced.
CPU time since last call: 0.012 seconds.

Total CPU time: 0.012 seconds.

Total DRAM available = 7897.375000 MB.
DRAM currently available = 3821.792969 MB.
Total ngspice program size = 14.845703 MB.
Resident set size = 1.977539 MB.
Shared ngspice pages = 1.689453 MB.
Text (code) pages = 1.333008 MB.
Stack = 0 bytes.
Library pages = 333.000 kB.

