
Circuit: ********************************************************************************

Doing analysis at TEMP = 0.000000 and TNOM = 27.000000


Initial Transient Solution
--------------------------

Node                                   Voltage
----                                   -------
2                                          nan
1                                            3
v1#branch                                  nan


