
Circuit: ********************************************************************************

Doing analysis at TEMP = 27.000000 and TNOM = 27.000000

No. of Data Columns : 6  

No. of Data Rows : 41
.print line ignored since rawfile was produced.
CPU time since last call: 0.016 seconds.

Total CPU time: 0.016 seconds.

Total DRAM available = 7897.375000 MB.
DRAM currently available = 2851.183594 MB.
Total ngspice program size = 14.779297 MB.
Resident set size = 1.924805 MB.
Shared ngspice pages = 1.695312 MB.
Text (code) pages = 1.333008 MB.
Stack = 0 bytes.
Library pages = 265.000 kB.

